<additional>
	<laneAreaDetector id="detector-starth0-(0_0)" lane="starth0-(0_0)_2"     pos="-150" endPos="-1" file="cross.out" freq="30"/>
	<laneAreaDetector id="detector-(0_0)-(0_1)" lane="(0_0)-(0_1)_2"     pos="-150" endPos="-1" file="cross.out" freq="30"/>
	<laneAreaDetector id="detector-(0_1)-(0_2)" lane="(0_1)-(0_2)_2"     pos="-150" endPos="-1" file="cross.out" freq="30"/>
	<laneAreaDetector id="detector-(0_2)-endh0" lane="(0_2)-endh0_2"     pos="-150" endPos="-1" file="cross.out" freq="30"/>
	<laneAreaDetector id="detector-endh0-(0_2)" lane="endh0-(0_2)_2"     pos="-150" endPos="-1" file="cross.out" freq="30"/>
	<laneAreaDetector id="detector-(0_2)-(0_1)" lane="(0_2)-(0_1)_2"     pos="-150" endPos="-1" file="cross.out" freq="30"/>
	<laneAreaDetector id="detector-(0_1)-(0_0)" lane="(0_1)-(0_0)_2"     pos="-150" endPos="-1" file="cross.out" freq="30"/>
	<laneAreaDetector id="detector-(0_0)-starth0" lane="(0_0)-starth0_2"     pos="-150" endPos="-1" file="cross.out" freq="30"/>
	<laneAreaDetector id="detector-starth1-(1_0)" lane="starth1-(1_0)_2"     pos="-150" endPos="-1" file="cross.out" freq="30"/>
	<laneAreaDetector id="detector-(1_0)-(1_1)" lane="(1_0)-(1_1)_2"     pos="-150" endPos="-1" file="cross.out" freq="30"/>
	<laneAreaDetector id="detector-(1_1)-(1_2)" lane="(1_1)-(1_2)_2"     pos="-150" endPos="-1" file="cross.out" freq="30"/>
	<laneAreaDetector id="detector-(1_2)-endh1" lane="(1_2)-endh1_2"     pos="-150" endPos="-1" file="cross.out" freq="30"/>
	<laneAreaDetector id="detector-endh1-(1_2)" lane="endh1-(1_2)_2"     pos="-150" endPos="-1" file="cross.out" freq="30"/>
	<laneAreaDetector id="detector-(1_2)-(1_1)" lane="(1_2)-(1_1)_2"     pos="-150" endPos="-1" file="cross.out" freq="30"/>
	<laneAreaDetector id="detector-(1_1)-(1_0)" lane="(1_1)-(1_0)_2"     pos="-150" endPos="-1" file="cross.out" freq="30"/>
	<laneAreaDetector id="detector-(1_0)-starth1" lane="(1_0)-starth1_2"     pos="-150" endPos="-1" file="cross.out" freq="30"/>
	<laneAreaDetector id="detector-starth2-(2_0)" lane="starth2-(2_0)_2"     pos="-150" endPos="-1" file="cross.out" freq="30"/>
	<laneAreaDetector id="detector-(2_0)-(2_1)" lane="(2_0)-(2_1)_2"     pos="-150" endPos="-1" file="cross.out" freq="30"/>
	<laneAreaDetector id="detector-(2_1)-(2_2)" lane="(2_1)-(2_2)_2"     pos="-150" endPos="-1" file="cross.out" freq="30"/>
	<laneAreaDetector id="detector-(2_2)-endh2" lane="(2_2)-endh2_2"     pos="-150" endPos="-1" file="cross.out" freq="30"/>
	<laneAreaDetector id="detector-endh2-(2_2)" lane="endh2-(2_2)_2"     pos="-150" endPos="-1" file="cross.out" freq="30"/>
	<laneAreaDetector id="detector-(2_2)-(2_1)" lane="(2_2)-(2_1)_2"     pos="-150" endPos="-1" file="cross.out" freq="30"/>
	<laneAreaDetector id="detector-(2_1)-(2_0)" lane="(2_1)-(2_0)_2"     pos="-150" endPos="-1" file="cross.out" freq="30"/>
	<laneAreaDetector id="detector-(2_0)-starth2" lane="(2_0)-starth2_2"     pos="-150" endPos="-1" file="cross.out" freq="30"/>
	<laneAreaDetector id="detector-startv0-(0_0)" lane="startv0-(0_0)_2"     pos="-150" endPos="-1" file="cross.out" freq="30"/>
	<laneAreaDetector id="detector-(0_0)-(1_0)" lane="(0_0)-(1_0)_2"     pos="-150" endPos="-1" file="cross.out" freq="30"/>
	<laneAreaDetector id="detector-(1_0)-(2_0)" lane="(1_0)-(2_0)_2"     pos="-150" endPos="-1" file="cross.out" freq="30"/>
	<laneAreaDetector id="detector-(2_0)-endv0" lane="(2_0)-endv0_2"     pos="-150" endPos="-1" file="cross.out" freq="30"/>
	<laneAreaDetector id="detector-startv1-(0_1)" lane="startv1-(0_1)_2"     pos="-150" endPos="-1" file="cross.out" freq="30"/>
	<laneAreaDetector id="detector-(0_1)-(1_1)" lane="(0_1)-(1_1)_2"     pos="-150" endPos="-1" file="cross.out" freq="30"/>
	<laneAreaDetector id="detector-(1_1)-(2_1)" lane="(1_1)-(2_1)_2"     pos="-150" endPos="-1" file="cross.out" freq="30"/>
	<laneAreaDetector id="detector-(2_1)-endv1" lane="(2_1)-endv1_2"     pos="-150" endPos="-1" file="cross.out" freq="30"/>
	<laneAreaDetector id="detector-endv1-(2_1)" lane="endv1-(2_1)_2"     pos="-150" endPos="-1" file="cross.out" freq="30"/>
	<laneAreaDetector id="detector-(2_1)-(1_1)" lane="(2_1)-(1_1)_2"     pos="-150" endPos="-1" file="cross.out" freq="30"/>
	<laneAreaDetector id="detector-(1_1)-(0_1)" lane="(1_1)-(0_1)_2"     pos="-150" endPos="-1" file="cross.out" freq="30"/>
	<laneAreaDetector id="detector-(0_1)-startv1" lane="(0_1)-startv1_2"     pos="-150" endPos="-1" file="cross.out" freq="30"/>
	<laneAreaDetector id="detector-startv2-(0_2)" lane="startv2-(0_2)_2"     pos="-150" endPos="-1" file="cross.out" freq="30"/>
	<laneAreaDetector id="detector-(0_2)-(1_2)" lane="(0_2)-(1_2)_2"     pos="-150" endPos="-1" file="cross.out" freq="30"/>
	<laneAreaDetector id="detector-(1_2)-(2_2)" lane="(1_2)-(2_2)_2"     pos="-150" endPos="-1" file="cross.out" freq="30"/>
	<laneAreaDetector id="detector-(2_2)-endv2" lane="(2_2)-endv2_2"     pos="-150" endPos="-1" file="cross.out" freq="30"/>
</additional>