<?xml version="1.0" encoding="UTF-8"?>
<routes>
	<vType id="normal" vClass="passenger" maxSpeed="40" speedFactor="0.9" speedDev="0.2" sigma="0.5"/>
	<vType id="sporty" vClass="passenger" maxSpeed="60" speedFactor="1.3" speedDev="0.1" sigma="0.1"/>
	<vType id="trailer" vClass="trailer" maxSpeed="30" speedFactor="1.1" speedDev="0.1" sigma="0.5"/>
	<vType id="coach" vClass="coach" maxSpeed="30" speedFactor="1.0" speedDev="0.1" sigma="0.5"/>
	<flow id="normal-(starth0-(0_0))-((0_2)-endh0)" type="normal" beg="0" end="5000" number="50" from="starth0-(0_0)" to="(0_2)-endh0"/>
	<flow id="sporty-(starth0-(0_0))-((0_2)-endh0)" type="sporty" beg="0" end="5000" number="3" from="starth0-(0_0)" to="(0_2)-endh0"/>
	<flow id="trailer-(starth0-(0_0))-((0_2)-endh0)" type="trailer" beg="0" end="5000" number="3" from="starth0-(0_0)" to="(0_2)-endh0"/>
	<flow id="coach-(starth0-(0_0))-((0_2)-endh0)" type="coach" beg="0" end="5000" number="7" from="starth0-(0_0)" to="(0_2)-endh0"/>
	<flow id="normal-(starth0-(0_0))-((0_0)-starth0)" type="normal" beg="0" end="5000" number="50" from="starth0-(0_0)" to="(0_0)-starth0"/>
	<flow id="sporty-(starth0-(0_0))-((0_0)-starth0)" type="sporty" beg="0" end="5000" number="3" from="starth0-(0_0)" to="(0_0)-starth0"/>
	<flow id="trailer-(starth0-(0_0))-((0_0)-starth0)" type="trailer" beg="0" end="5000" number="3" from="starth0-(0_0)" to="(0_0)-starth0"/>
	<flow id="coach-(starth0-(0_0))-((0_0)-starth0)" type="coach" beg="0" end="5000" number="7" from="starth0-(0_0)" to="(0_0)-starth0"/>
	<flow id="normal-(starth0-(0_0))-((1_2)-endh1)" type="normal" beg="0" end="5000" number="50" from="starth0-(0_0)" to="(1_2)-endh1"/>
	<flow id="sporty-(starth0-(0_0))-((1_2)-endh1)" type="sporty" beg="0" end="5000" number="3" from="starth0-(0_0)" to="(1_2)-endh1"/>
	<flow id="trailer-(starth0-(0_0))-((1_2)-endh1)" type="trailer" beg="0" end="5000" number="3" from="starth0-(0_0)" to="(1_2)-endh1"/>
	<flow id="coach-(starth0-(0_0))-((1_2)-endh1)" type="coach" beg="0" end="5000" number="7" from="starth0-(0_0)" to="(1_2)-endh1"/>
	<flow id="normal-(starth0-(0_0))-((1_0)-starth1)" type="normal" beg="0" end="5000" number="50" from="starth0-(0_0)" to="(1_0)-starth1"/>
	<flow id="sporty-(starth0-(0_0))-((1_0)-starth1)" type="sporty" beg="0" end="5000" number="3" from="starth0-(0_0)" to="(1_0)-starth1"/>
	<flow id="trailer-(starth0-(0_0))-((1_0)-starth1)" type="trailer" beg="0" end="5000" number="3" from="starth0-(0_0)" to="(1_0)-starth1"/>
	<flow id="coach-(starth0-(0_0))-((1_0)-starth1)" type="coach" beg="0" end="5000" number="7" from="starth0-(0_0)" to="(1_0)-starth1"/>
	<flow id="normal-(starth0-(0_0))-((2_2)-endh2)" type="normal" beg="0" end="5000" number="50" from="starth0-(0_0)" to="(2_2)-endh2"/>
	<flow id="sporty-(starth0-(0_0))-((2_2)-endh2)" type="sporty" beg="0" end="5000" number="3" from="starth0-(0_0)" to="(2_2)-endh2"/>
	<flow id="trailer-(starth0-(0_0))-((2_2)-endh2)" type="trailer" beg="0" end="5000" number="3" from="starth0-(0_0)" to="(2_2)-endh2"/>
	<flow id="coach-(starth0-(0_0))-((2_2)-endh2)" type="coach" beg="0" end="5000" number="7" from="starth0-(0_0)" to="(2_2)-endh2"/>
	<flow id="normal-(starth0-(0_0))-((2_0)-starth2)" type="normal" beg="0" end="5000" number="50" from="starth0-(0_0)" to="(2_0)-starth2"/>
	<flow id="sporty-(starth0-(0_0))-((2_0)-starth2)" type="sporty" beg="0" end="5000" number="3" from="starth0-(0_0)" to="(2_0)-starth2"/>
	<flow id="trailer-(starth0-(0_0))-((2_0)-starth2)" type="trailer" beg="0" end="5000" number="3" from="starth0-(0_0)" to="(2_0)-starth2"/>
	<flow id="coach-(starth0-(0_0))-((2_0)-starth2)" type="coach" beg="0" end="5000" number="7" from="starth0-(0_0)" to="(2_0)-starth2"/>
	<flow id="normal-(starth0-(0_0))-((2_0)-endv0)" type="normal" beg="0" end="5000" number="50" from="starth0-(0_0)" to="(2_0)-endv0"/>
	<flow id="sporty-(starth0-(0_0))-((2_0)-endv0)" type="sporty" beg="0" end="5000" number="3" from="starth0-(0_0)" to="(2_0)-endv0"/>
	<flow id="trailer-(starth0-(0_0))-((2_0)-endv0)" type="trailer" beg="0" end="5000" number="3" from="starth0-(0_0)" to="(2_0)-endv0"/>
	<flow id="coach-(starth0-(0_0))-((2_0)-endv0)" type="coach" beg="0" end="5000" number="7" from="starth0-(0_0)" to="(2_0)-endv0"/>
	<flow id="normal-(starth0-(0_0))-((2_1)-endv1)" type="normal" beg="0" end="5000" number="50" from="starth0-(0_0)" to="(2_1)-endv1"/>
	<flow id="sporty-(starth0-(0_0))-((2_1)-endv1)" type="sporty" beg="0" end="5000" number="3" from="starth0-(0_0)" to="(2_1)-endv1"/>
	<flow id="trailer-(starth0-(0_0))-((2_1)-endv1)" type="trailer" beg="0" end="5000" number="3" from="starth0-(0_0)" to="(2_1)-endv1"/>
	<flow id="coach-(starth0-(0_0))-((2_1)-endv1)" type="coach" beg="0" end="5000" number="7" from="starth0-(0_0)" to="(2_1)-endv1"/>
	<flow id="normal-(starth0-(0_0))-((0_1)-startv1)" type="normal" beg="0" end="5000" number="50" from="starth0-(0_0)" to="(0_1)-startv1"/>
	<flow id="sporty-(starth0-(0_0))-((0_1)-startv1)" type="sporty" beg="0" end="5000" number="3" from="starth0-(0_0)" to="(0_1)-startv1"/>
	<flow id="trailer-(starth0-(0_0))-((0_1)-startv1)" type="trailer" beg="0" end="5000" number="3" from="starth0-(0_0)" to="(0_1)-startv1"/>
	<flow id="coach-(starth0-(0_0))-((0_1)-startv1)" type="coach" beg="0" end="5000" number="7" from="starth0-(0_0)" to="(0_1)-startv1"/>
	<flow id="normal-(starth0-(0_0))-((2_2)-endv2)" type="normal" beg="0" end="5000" number="50" from="starth0-(0_0)" to="(2_2)-endv2"/>
	<flow id="sporty-(starth0-(0_0))-((2_2)-endv2)" type="sporty" beg="0" end="5000" number="3" from="starth0-(0_0)" to="(2_2)-endv2"/>
	<flow id="trailer-(starth0-(0_0))-((2_2)-endv2)" type="trailer" beg="0" end="5000" number="3" from="starth0-(0_0)" to="(2_2)-endv2"/>
	<flow id="coach-(starth0-(0_0))-((2_2)-endv2)" type="coach" beg="0" end="5000" number="7" from="starth0-(0_0)" to="(2_2)-endv2"/>
	<flow id="normal-(endh0-(0_2))-((0_2)-endh0)" type="normal" beg="0" end="5000" number="50" from="endh0-(0_2)" to="(0_2)-endh0"/>
	<flow id="sporty-(endh0-(0_2))-((0_2)-endh0)" type="sporty" beg="0" end="5000" number="3" from="endh0-(0_2)" to="(0_2)-endh0"/>
	<flow id="trailer-(endh0-(0_2))-((0_2)-endh0)" type="trailer" beg="0" end="5000" number="3" from="endh0-(0_2)" to="(0_2)-endh0"/>
	<flow id="coach-(endh0-(0_2))-((0_2)-endh0)" type="coach" beg="0" end="5000" number="7" from="endh0-(0_2)" to="(0_2)-endh0"/>
	<flow id="normal-(endh0-(0_2))-((0_0)-starth0)" type="normal" beg="0" end="5000" number="50" from="endh0-(0_2)" to="(0_0)-starth0"/>
	<flow id="sporty-(endh0-(0_2))-((0_0)-starth0)" type="sporty" beg="0" end="5000" number="3" from="endh0-(0_2)" to="(0_0)-starth0"/>
	<flow id="trailer-(endh0-(0_2))-((0_0)-starth0)" type="trailer" beg="0" end="5000" number="3" from="endh0-(0_2)" to="(0_0)-starth0"/>
	<flow id="coach-(endh0-(0_2))-((0_0)-starth0)" type="coach" beg="0" end="5000" number="7" from="endh0-(0_2)" to="(0_0)-starth0"/>
	<flow id="normal-(endh0-(0_2))-((1_2)-endh1)" type="normal" beg="0" end="5000" number="50" from="endh0-(0_2)" to="(1_2)-endh1"/>
	<flow id="sporty-(endh0-(0_2))-((1_2)-endh1)" type="sporty" beg="0" end="5000" number="3" from="endh0-(0_2)" to="(1_2)-endh1"/>
	<flow id="trailer-(endh0-(0_2))-((1_2)-endh1)" type="trailer" beg="0" end="5000" number="3" from="endh0-(0_2)" to="(1_2)-endh1"/>
	<flow id="coach-(endh0-(0_2))-((1_2)-endh1)" type="coach" beg="0" end="5000" number="7" from="endh0-(0_2)" to="(1_2)-endh1"/>
	<flow id="normal-(endh0-(0_2))-((1_0)-starth1)" type="normal" beg="0" end="5000" number="50" from="endh0-(0_2)" to="(1_0)-starth1"/>
	<flow id="sporty-(endh0-(0_2))-((1_0)-starth1)" type="sporty" beg="0" end="5000" number="3" from="endh0-(0_2)" to="(1_0)-starth1"/>
	<flow id="trailer-(endh0-(0_2))-((1_0)-starth1)" type="trailer" beg="0" end="5000" number="3" from="endh0-(0_2)" to="(1_0)-starth1"/>
	<flow id="coach-(endh0-(0_2))-((1_0)-starth1)" type="coach" beg="0" end="5000" number="7" from="endh0-(0_2)" to="(1_0)-starth1"/>
	<flow id="normal-(endh0-(0_2))-((2_2)-endh2)" type="normal" beg="0" end="5000" number="50" from="endh0-(0_2)" to="(2_2)-endh2"/>
	<flow id="sporty-(endh0-(0_2))-((2_2)-endh2)" type="sporty" beg="0" end="5000" number="3" from="endh0-(0_2)" to="(2_2)-endh2"/>
	<flow id="trailer-(endh0-(0_2))-((2_2)-endh2)" type="trailer" beg="0" end="5000" number="3" from="endh0-(0_2)" to="(2_2)-endh2"/>
	<flow id="coach-(endh0-(0_2))-((2_2)-endh2)" type="coach" beg="0" end="5000" number="7" from="endh0-(0_2)" to="(2_2)-endh2"/>
	<flow id="normal-(endh0-(0_2))-((2_0)-starth2)" type="normal" beg="0" end="5000" number="50" from="endh0-(0_2)" to="(2_0)-starth2"/>
	<flow id="sporty-(endh0-(0_2))-((2_0)-starth2)" type="sporty" beg="0" end="5000" number="3" from="endh0-(0_2)" to="(2_0)-starth2"/>
	<flow id="trailer-(endh0-(0_2))-((2_0)-starth2)" type="trailer" beg="0" end="5000" number="3" from="endh0-(0_2)" to="(2_0)-starth2"/>
	<flow id="coach-(endh0-(0_2))-((2_0)-starth2)" type="coach" beg="0" end="5000" number="7" from="endh0-(0_2)" to="(2_0)-starth2"/>
	<flow id="normal-(endh0-(0_2))-((2_0)-endv0)" type="normal" beg="0" end="5000" number="50" from="endh0-(0_2)" to="(2_0)-endv0"/>
	<flow id="sporty-(endh0-(0_2))-((2_0)-endv0)" type="sporty" beg="0" end="5000" number="3" from="endh0-(0_2)" to="(2_0)-endv0"/>
	<flow id="trailer-(endh0-(0_2))-((2_0)-endv0)" type="trailer" beg="0" end="5000" number="3" from="endh0-(0_2)" to="(2_0)-endv0"/>
	<flow id="coach-(endh0-(0_2))-((2_0)-endv0)" type="coach" beg="0" end="5000" number="7" from="endh0-(0_2)" to="(2_0)-endv0"/>
	<flow id="normal-(endh0-(0_2))-((2_1)-endv1)" type="normal" beg="0" end="5000" number="50" from="endh0-(0_2)" to="(2_1)-endv1"/>
	<flow id="sporty-(endh0-(0_2))-((2_1)-endv1)" type="sporty" beg="0" end="5000" number="3" from="endh0-(0_2)" to="(2_1)-endv1"/>
	<flow id="trailer-(endh0-(0_2))-((2_1)-endv1)" type="trailer" beg="0" end="5000" number="3" from="endh0-(0_2)" to="(2_1)-endv1"/>
	<flow id="coach-(endh0-(0_2))-((2_1)-endv1)" type="coach" beg="0" end="5000" number="7" from="endh0-(0_2)" to="(2_1)-endv1"/>
	<flow id="normal-(endh0-(0_2))-((0_1)-startv1)" type="normal" beg="0" end="5000" number="50" from="endh0-(0_2)" to="(0_1)-startv1"/>
	<flow id="sporty-(endh0-(0_2))-((0_1)-startv1)" type="sporty" beg="0" end="5000" number="3" from="endh0-(0_2)" to="(0_1)-startv1"/>
	<flow id="trailer-(endh0-(0_2))-((0_1)-startv1)" type="trailer" beg="0" end="5000" number="3" from="endh0-(0_2)" to="(0_1)-startv1"/>
	<flow id="coach-(endh0-(0_2))-((0_1)-startv1)" type="coach" beg="0" end="5000" number="7" from="endh0-(0_2)" to="(0_1)-startv1"/>
	<flow id="normal-(endh0-(0_2))-((2_2)-endv2)" type="normal" beg="0" end="5000" number="50" from="endh0-(0_2)" to="(2_2)-endv2"/>
	<flow id="sporty-(endh0-(0_2))-((2_2)-endv2)" type="sporty" beg="0" end="5000" number="3" from="endh0-(0_2)" to="(2_2)-endv2"/>
	<flow id="trailer-(endh0-(0_2))-((2_2)-endv2)" type="trailer" beg="0" end="5000" number="3" from="endh0-(0_2)" to="(2_2)-endv2"/>
	<flow id="coach-(endh0-(0_2))-((2_2)-endv2)" type="coach" beg="0" end="5000" number="7" from="endh0-(0_2)" to="(2_2)-endv2"/>
	<flow id="normal-(starth1-(1_0))-((0_2)-endh0)" type="normal" beg="0" end="5000" number="50" from="starth1-(1_0)" to="(0_2)-endh0"/>
	<flow id="sporty-(starth1-(1_0))-((0_2)-endh0)" type="sporty" beg="0" end="5000" number="3" from="starth1-(1_0)" to="(0_2)-endh0"/>
	<flow id="trailer-(starth1-(1_0))-((0_2)-endh0)" type="trailer" beg="0" end="5000" number="3" from="starth1-(1_0)" to="(0_2)-endh0"/>
	<flow id="coach-(starth1-(1_0))-((0_2)-endh0)" type="coach" beg="0" end="5000" number="7" from="starth1-(1_0)" to="(0_2)-endh0"/>
	<flow id="normal-(starth1-(1_0))-((0_0)-starth0)" type="normal" beg="0" end="5000" number="50" from="starth1-(1_0)" to="(0_0)-starth0"/>
	<flow id="sporty-(starth1-(1_0))-((0_0)-starth0)" type="sporty" beg="0" end="5000" number="3" from="starth1-(1_0)" to="(0_0)-starth0"/>
	<flow id="trailer-(starth1-(1_0))-((0_0)-starth0)" type="trailer" beg="0" end="5000" number="3" from="starth1-(1_0)" to="(0_0)-starth0"/>
	<flow id="coach-(starth1-(1_0))-((0_0)-starth0)" type="coach" beg="0" end="5000" number="7" from="starth1-(1_0)" to="(0_0)-starth0"/>
	<flow id="normal-(starth1-(1_0))-((1_2)-endh1)" type="normal" beg="0" end="5000" number="50" from="starth1-(1_0)" to="(1_2)-endh1"/>
	<flow id="sporty-(starth1-(1_0))-((1_2)-endh1)" type="sporty" beg="0" end="5000" number="3" from="starth1-(1_0)" to="(1_2)-endh1"/>
	<flow id="trailer-(starth1-(1_0))-((1_2)-endh1)" type="trailer" beg="0" end="5000" number="3" from="starth1-(1_0)" to="(1_2)-endh1"/>
	<flow id="coach-(starth1-(1_0))-((1_2)-endh1)" type="coach" beg="0" end="5000" number="7" from="starth1-(1_0)" to="(1_2)-endh1"/>
	<flow id="normal-(starth1-(1_0))-((1_0)-starth1)" type="normal" beg="0" end="5000" number="50" from="starth1-(1_0)" to="(1_0)-starth1"/>
	<flow id="sporty-(starth1-(1_0))-((1_0)-starth1)" type="sporty" beg="0" end="5000" number="3" from="starth1-(1_0)" to="(1_0)-starth1"/>
	<flow id="trailer-(starth1-(1_0))-((1_0)-starth1)" type="trailer" beg="0" end="5000" number="3" from="starth1-(1_0)" to="(1_0)-starth1"/>
	<flow id="coach-(starth1-(1_0))-((1_0)-starth1)" type="coach" beg="0" end="5000" number="7" from="starth1-(1_0)" to="(1_0)-starth1"/>
	<flow id="normal-(starth1-(1_0))-((2_2)-endh2)" type="normal" beg="0" end="5000" number="50" from="starth1-(1_0)" to="(2_2)-endh2"/>
	<flow id="sporty-(starth1-(1_0))-((2_2)-endh2)" type="sporty" beg="0" end="5000" number="3" from="starth1-(1_0)" to="(2_2)-endh2"/>
	<flow id="trailer-(starth1-(1_0))-((2_2)-endh2)" type="trailer" beg="0" end="5000" number="3" from="starth1-(1_0)" to="(2_2)-endh2"/>
	<flow id="coach-(starth1-(1_0))-((2_2)-endh2)" type="coach" beg="0" end="5000" number="7" from="starth1-(1_0)" to="(2_2)-endh2"/>
	<flow id="normal-(starth1-(1_0))-((2_0)-starth2)" type="normal" beg="0" end="5000" number="50" from="starth1-(1_0)" to="(2_0)-starth2"/>
	<flow id="sporty-(starth1-(1_0))-((2_0)-starth2)" type="sporty" beg="0" end="5000" number="3" from="starth1-(1_0)" to="(2_0)-starth2"/>
	<flow id="trailer-(starth1-(1_0))-((2_0)-starth2)" type="trailer" beg="0" end="5000" number="3" from="starth1-(1_0)" to="(2_0)-starth2"/>
	<flow id="coach-(starth1-(1_0))-((2_0)-starth2)" type="coach" beg="0" end="5000" number="7" from="starth1-(1_0)" to="(2_0)-starth2"/>
	<flow id="normal-(starth1-(1_0))-((2_0)-endv0)" type="normal" beg="0" end="5000" number="50" from="starth1-(1_0)" to="(2_0)-endv0"/>
	<flow id="sporty-(starth1-(1_0))-((2_0)-endv0)" type="sporty" beg="0" end="5000" number="3" from="starth1-(1_0)" to="(2_0)-endv0"/>
	<flow id="trailer-(starth1-(1_0))-((2_0)-endv0)" type="trailer" beg="0" end="5000" number="3" from="starth1-(1_0)" to="(2_0)-endv0"/>
	<flow id="coach-(starth1-(1_0))-((2_0)-endv0)" type="coach" beg="0" end="5000" number="7" from="starth1-(1_0)" to="(2_0)-endv0"/>
	<flow id="normal-(starth1-(1_0))-((2_1)-endv1)" type="normal" beg="0" end="5000" number="50" from="starth1-(1_0)" to="(2_1)-endv1"/>
	<flow id="sporty-(starth1-(1_0))-((2_1)-endv1)" type="sporty" beg="0" end="5000" number="3" from="starth1-(1_0)" to="(2_1)-endv1"/>
	<flow id="trailer-(starth1-(1_0))-((2_1)-endv1)" type="trailer" beg="0" end="5000" number="3" from="starth1-(1_0)" to="(2_1)-endv1"/>
	<flow id="coach-(starth1-(1_0))-((2_1)-endv1)" type="coach" beg="0" end="5000" number="7" from="starth1-(1_0)" to="(2_1)-endv1"/>
	<flow id="normal-(starth1-(1_0))-((0_1)-startv1)" type="normal" beg="0" end="5000" number="50" from="starth1-(1_0)" to="(0_1)-startv1"/>
	<flow id="sporty-(starth1-(1_0))-((0_1)-startv1)" type="sporty" beg="0" end="5000" number="3" from="starth1-(1_0)" to="(0_1)-startv1"/>
	<flow id="trailer-(starth1-(1_0))-((0_1)-startv1)" type="trailer" beg="0" end="5000" number="3" from="starth1-(1_0)" to="(0_1)-startv1"/>
	<flow id="coach-(starth1-(1_0))-((0_1)-startv1)" type="coach" beg="0" end="5000" number="7" from="starth1-(1_0)" to="(0_1)-startv1"/>
	<flow id="normal-(starth1-(1_0))-((2_2)-endv2)" type="normal" beg="0" end="5000" number="50" from="starth1-(1_0)" to="(2_2)-endv2"/>
	<flow id="sporty-(starth1-(1_0))-((2_2)-endv2)" type="sporty" beg="0" end="5000" number="3" from="starth1-(1_0)" to="(2_2)-endv2"/>
	<flow id="trailer-(starth1-(1_0))-((2_2)-endv2)" type="trailer" beg="0" end="5000" number="3" from="starth1-(1_0)" to="(2_2)-endv2"/>
	<flow id="coach-(starth1-(1_0))-((2_2)-endv2)" type="coach" beg="0" end="5000" number="7" from="starth1-(1_0)" to="(2_2)-endv2"/>
	<flow id="normal-(endh1-(1_2))-((0_2)-endh0)" type="normal" beg="0" end="5000" number="50" from="endh1-(1_2)" to="(0_2)-endh0"/>
	<flow id="sporty-(endh1-(1_2))-((0_2)-endh0)" type="sporty" beg="0" end="5000" number="3" from="endh1-(1_2)" to="(0_2)-endh0"/>
	<flow id="trailer-(endh1-(1_2))-((0_2)-endh0)" type="trailer" beg="0" end="5000" number="3" from="endh1-(1_2)" to="(0_2)-endh0"/>
	<flow id="coach-(endh1-(1_2))-((0_2)-endh0)" type="coach" beg="0" end="5000" number="7" from="endh1-(1_2)" to="(0_2)-endh0"/>
	<flow id="normal-(endh1-(1_2))-((0_0)-starth0)" type="normal" beg="0" end="5000" number="50" from="endh1-(1_2)" to="(0_0)-starth0"/>
	<flow id="sporty-(endh1-(1_2))-((0_0)-starth0)" type="sporty" beg="0" end="5000" number="3" from="endh1-(1_2)" to="(0_0)-starth0"/>
	<flow id="trailer-(endh1-(1_2))-((0_0)-starth0)" type="trailer" beg="0" end="5000" number="3" from="endh1-(1_2)" to="(0_0)-starth0"/>
	<flow id="coach-(endh1-(1_2))-((0_0)-starth0)" type="coach" beg="0" end="5000" number="7" from="endh1-(1_2)" to="(0_0)-starth0"/>
	<flow id="normal-(endh1-(1_2))-((1_2)-endh1)" type="normal" beg="0" end="5000" number="50" from="endh1-(1_2)" to="(1_2)-endh1"/>
	<flow id="sporty-(endh1-(1_2))-((1_2)-endh1)" type="sporty" beg="0" end="5000" number="3" from="endh1-(1_2)" to="(1_2)-endh1"/>
	<flow id="trailer-(endh1-(1_2))-((1_2)-endh1)" type="trailer" beg="0" end="5000" number="3" from="endh1-(1_2)" to="(1_2)-endh1"/>
	<flow id="coach-(endh1-(1_2))-((1_2)-endh1)" type="coach" beg="0" end="5000" number="7" from="endh1-(1_2)" to="(1_2)-endh1"/>
	<flow id="normal-(endh1-(1_2))-((1_0)-starth1)" type="normal" beg="0" end="5000" number="50" from="endh1-(1_2)" to="(1_0)-starth1"/>
	<flow id="sporty-(endh1-(1_2))-((1_0)-starth1)" type="sporty" beg="0" end="5000" number="3" from="endh1-(1_2)" to="(1_0)-starth1"/>
	<flow id="trailer-(endh1-(1_2))-((1_0)-starth1)" type="trailer" beg="0" end="5000" number="3" from="endh1-(1_2)" to="(1_0)-starth1"/>
	<flow id="coach-(endh1-(1_2))-((1_0)-starth1)" type="coach" beg="0" end="5000" number="7" from="endh1-(1_2)" to="(1_0)-starth1"/>
	<flow id="normal-(endh1-(1_2))-((2_2)-endh2)" type="normal" beg="0" end="5000" number="50" from="endh1-(1_2)" to="(2_2)-endh2"/>
	<flow id="sporty-(endh1-(1_2))-((2_2)-endh2)" type="sporty" beg="0" end="5000" number="3" from="endh1-(1_2)" to="(2_2)-endh2"/>
	<flow id="trailer-(endh1-(1_2))-((2_2)-endh2)" type="trailer" beg="0" end="5000" number="3" from="endh1-(1_2)" to="(2_2)-endh2"/>
	<flow id="coach-(endh1-(1_2))-((2_2)-endh2)" type="coach" beg="0" end="5000" number="7" from="endh1-(1_2)" to="(2_2)-endh2"/>
	<flow id="normal-(endh1-(1_2))-((2_0)-starth2)" type="normal" beg="0" end="5000" number="50" from="endh1-(1_2)" to="(2_0)-starth2"/>
	<flow id="sporty-(endh1-(1_2))-((2_0)-starth2)" type="sporty" beg="0" end="5000" number="3" from="endh1-(1_2)" to="(2_0)-starth2"/>
	<flow id="trailer-(endh1-(1_2))-((2_0)-starth2)" type="trailer" beg="0" end="5000" number="3" from="endh1-(1_2)" to="(2_0)-starth2"/>
	<flow id="coach-(endh1-(1_2))-((2_0)-starth2)" type="coach" beg="0" end="5000" number="7" from="endh1-(1_2)" to="(2_0)-starth2"/>
	<flow id="normal-(endh1-(1_2))-((2_0)-endv0)" type="normal" beg="0" end="5000" number="50" from="endh1-(1_2)" to="(2_0)-endv0"/>
	<flow id="sporty-(endh1-(1_2))-((2_0)-endv0)" type="sporty" beg="0" end="5000" number="3" from="endh1-(1_2)" to="(2_0)-endv0"/>
	<flow id="trailer-(endh1-(1_2))-((2_0)-endv0)" type="trailer" beg="0" end="5000" number="3" from="endh1-(1_2)" to="(2_0)-endv0"/>
	<flow id="coach-(endh1-(1_2))-((2_0)-endv0)" type="coach" beg="0" end="5000" number="7" from="endh1-(1_2)" to="(2_0)-endv0"/>
	<flow id="normal-(endh1-(1_2))-((2_1)-endv1)" type="normal" beg="0" end="5000" number="50" from="endh1-(1_2)" to="(2_1)-endv1"/>
	<flow id="sporty-(endh1-(1_2))-((2_1)-endv1)" type="sporty" beg="0" end="5000" number="3" from="endh1-(1_2)" to="(2_1)-endv1"/>
	<flow id="trailer-(endh1-(1_2))-((2_1)-endv1)" type="trailer" beg="0" end="5000" number="3" from="endh1-(1_2)" to="(2_1)-endv1"/>
	<flow id="coach-(endh1-(1_2))-((2_1)-endv1)" type="coach" beg="0" end="5000" number="7" from="endh1-(1_2)" to="(2_1)-endv1"/>
	<flow id="normal-(endh1-(1_2))-((0_1)-startv1)" type="normal" beg="0" end="5000" number="50" from="endh1-(1_2)" to="(0_1)-startv1"/>
	<flow id="sporty-(endh1-(1_2))-((0_1)-startv1)" type="sporty" beg="0" end="5000" number="3" from="endh1-(1_2)" to="(0_1)-startv1"/>
	<flow id="trailer-(endh1-(1_2))-((0_1)-startv1)" type="trailer" beg="0" end="5000" number="3" from="endh1-(1_2)" to="(0_1)-startv1"/>
	<flow id="coach-(endh1-(1_2))-((0_1)-startv1)" type="coach" beg="0" end="5000" number="7" from="endh1-(1_2)" to="(0_1)-startv1"/>
	<flow id="normal-(endh1-(1_2))-((2_2)-endv2)" type="normal" beg="0" end="5000" number="50" from="endh1-(1_2)" to="(2_2)-endv2"/>
	<flow id="sporty-(endh1-(1_2))-((2_2)-endv2)" type="sporty" beg="0" end="5000" number="3" from="endh1-(1_2)" to="(2_2)-endv2"/>
	<flow id="trailer-(endh1-(1_2))-((2_2)-endv2)" type="trailer" beg="0" end="5000" number="3" from="endh1-(1_2)" to="(2_2)-endv2"/>
	<flow id="coach-(endh1-(1_2))-((2_2)-endv2)" type="coach" beg="0" end="5000" number="7" from="endh1-(1_2)" to="(2_2)-endv2"/>
	<flow id="normal-(starth2-(2_0))-((0_2)-endh0)" type="normal" beg="0" end="5000" number="50" from="starth2-(2_0)" to="(0_2)-endh0"/>
	<flow id="sporty-(starth2-(2_0))-((0_2)-endh0)" type="sporty" beg="0" end="5000" number="3" from="starth2-(2_0)" to="(0_2)-endh0"/>
	<flow id="trailer-(starth2-(2_0))-((0_2)-endh0)" type="trailer" beg="0" end="5000" number="3" from="starth2-(2_0)" to="(0_2)-endh0"/>
	<flow id="coach-(starth2-(2_0))-((0_2)-endh0)" type="coach" beg="0" end="5000" number="7" from="starth2-(2_0)" to="(0_2)-endh0"/>
	<flow id="normal-(starth2-(2_0))-((0_0)-starth0)" type="normal" beg="0" end="5000" number="50" from="starth2-(2_0)" to="(0_0)-starth0"/>
	<flow id="sporty-(starth2-(2_0))-((0_0)-starth0)" type="sporty" beg="0" end="5000" number="3" from="starth2-(2_0)" to="(0_0)-starth0"/>
	<flow id="trailer-(starth2-(2_0))-((0_0)-starth0)" type="trailer" beg="0" end="5000" number="3" from="starth2-(2_0)" to="(0_0)-starth0"/>
	<flow id="coach-(starth2-(2_0))-((0_0)-starth0)" type="coach" beg="0" end="5000" number="7" from="starth2-(2_0)" to="(0_0)-starth0"/>
	<flow id="normal-(starth2-(2_0))-((1_2)-endh1)" type="normal" beg="0" end="5000" number="50" from="starth2-(2_0)" to="(1_2)-endh1"/>
	<flow id="sporty-(starth2-(2_0))-((1_2)-endh1)" type="sporty" beg="0" end="5000" number="3" from="starth2-(2_0)" to="(1_2)-endh1"/>
	<flow id="trailer-(starth2-(2_0))-((1_2)-endh1)" type="trailer" beg="0" end="5000" number="3" from="starth2-(2_0)" to="(1_2)-endh1"/>
	<flow id="coach-(starth2-(2_0))-((1_2)-endh1)" type="coach" beg="0" end="5000" number="7" from="starth2-(2_0)" to="(1_2)-endh1"/>
	<flow id="normal-(starth2-(2_0))-((1_0)-starth1)" type="normal" beg="0" end="5000" number="50" from="starth2-(2_0)" to="(1_0)-starth1"/>
	<flow id="sporty-(starth2-(2_0))-((1_0)-starth1)" type="sporty" beg="0" end="5000" number="3" from="starth2-(2_0)" to="(1_0)-starth1"/>
	<flow id="trailer-(starth2-(2_0))-((1_0)-starth1)" type="trailer" beg="0" end="5000" number="3" from="starth2-(2_0)" to="(1_0)-starth1"/>
	<flow id="coach-(starth2-(2_0))-((1_0)-starth1)" type="coach" beg="0" end="5000" number="7" from="starth2-(2_0)" to="(1_0)-starth1"/>
	<flow id="normal-(starth2-(2_0))-((2_2)-endh2)" type="normal" beg="0" end="5000" number="50" from="starth2-(2_0)" to="(2_2)-endh2"/>
	<flow id="sporty-(starth2-(2_0))-((2_2)-endh2)" type="sporty" beg="0" end="5000" number="3" from="starth2-(2_0)" to="(2_2)-endh2"/>
	<flow id="trailer-(starth2-(2_0))-((2_2)-endh2)" type="trailer" beg="0" end="5000" number="3" from="starth2-(2_0)" to="(2_2)-endh2"/>
	<flow id="coach-(starth2-(2_0))-((2_2)-endh2)" type="coach" beg="0" end="5000" number="7" from="starth2-(2_0)" to="(2_2)-endh2"/>
	<flow id="normal-(starth2-(2_0))-((2_0)-starth2)" type="normal" beg="0" end="5000" number="50" from="starth2-(2_0)" to="(2_0)-starth2"/>
	<flow id="sporty-(starth2-(2_0))-((2_0)-starth2)" type="sporty" beg="0" end="5000" number="3" from="starth2-(2_0)" to="(2_0)-starth2"/>
	<flow id="trailer-(starth2-(2_0))-((2_0)-starth2)" type="trailer" beg="0" end="5000" number="3" from="starth2-(2_0)" to="(2_0)-starth2"/>
	<flow id="coach-(starth2-(2_0))-((2_0)-starth2)" type="coach" beg="0" end="5000" number="7" from="starth2-(2_0)" to="(2_0)-starth2"/>
	<flow id="normal-(starth2-(2_0))-((2_0)-endv0)" type="normal" beg="0" end="5000" number="50" from="starth2-(2_0)" to="(2_0)-endv0"/>
	<flow id="sporty-(starth2-(2_0))-((2_0)-endv0)" type="sporty" beg="0" end="5000" number="3" from="starth2-(2_0)" to="(2_0)-endv0"/>
	<flow id="trailer-(starth2-(2_0))-((2_0)-endv0)" type="trailer" beg="0" end="5000" number="3" from="starth2-(2_0)" to="(2_0)-endv0"/>
	<flow id="coach-(starth2-(2_0))-((2_0)-endv0)" type="coach" beg="0" end="5000" number="7" from="starth2-(2_0)" to="(2_0)-endv0"/>
	<flow id="normal-(starth2-(2_0))-((2_1)-endv1)" type="normal" beg="0" end="5000" number="50" from="starth2-(2_0)" to="(2_1)-endv1"/>
	<flow id="sporty-(starth2-(2_0))-((2_1)-endv1)" type="sporty" beg="0" end="5000" number="3" from="starth2-(2_0)" to="(2_1)-endv1"/>
	<flow id="trailer-(starth2-(2_0))-((2_1)-endv1)" type="trailer" beg="0" end="5000" number="3" from="starth2-(2_0)" to="(2_1)-endv1"/>
	<flow id="coach-(starth2-(2_0))-((2_1)-endv1)" type="coach" beg="0" end="5000" number="7" from="starth2-(2_0)" to="(2_1)-endv1"/>
	<flow id="normal-(starth2-(2_0))-((0_1)-startv1)" type="normal" beg="0" end="5000" number="50" from="starth2-(2_0)" to="(0_1)-startv1"/>
	<flow id="sporty-(starth2-(2_0))-((0_1)-startv1)" type="sporty" beg="0" end="5000" number="3" from="starth2-(2_0)" to="(0_1)-startv1"/>
	<flow id="trailer-(starth2-(2_0))-((0_1)-startv1)" type="trailer" beg="0" end="5000" number="3" from="starth2-(2_0)" to="(0_1)-startv1"/>
	<flow id="coach-(starth2-(2_0))-((0_1)-startv1)" type="coach" beg="0" end="5000" number="7" from="starth2-(2_0)" to="(0_1)-startv1"/>
	<flow id="normal-(starth2-(2_0))-((2_2)-endv2)" type="normal" beg="0" end="5000" number="50" from="starth2-(2_0)" to="(2_2)-endv2"/>
	<flow id="sporty-(starth2-(2_0))-((2_2)-endv2)" type="sporty" beg="0" end="5000" number="3" from="starth2-(2_0)" to="(2_2)-endv2"/>
	<flow id="trailer-(starth2-(2_0))-((2_2)-endv2)" type="trailer" beg="0" end="5000" number="3" from="starth2-(2_0)" to="(2_2)-endv2"/>
	<flow id="coach-(starth2-(2_0))-((2_2)-endv2)" type="coach" beg="0" end="5000" number="7" from="starth2-(2_0)" to="(2_2)-endv2"/>
	<flow id="normal-(endh2-(2_2))-((0_2)-endh0)" type="normal" beg="0" end="5000" number="50" from="endh2-(2_2)" to="(0_2)-endh0"/>
	<flow id="sporty-(endh2-(2_2))-((0_2)-endh0)" type="sporty" beg="0" end="5000" number="3" from="endh2-(2_2)" to="(0_2)-endh0"/>
	<flow id="trailer-(endh2-(2_2))-((0_2)-endh0)" type="trailer" beg="0" end="5000" number="3" from="endh2-(2_2)" to="(0_2)-endh0"/>
	<flow id="coach-(endh2-(2_2))-((0_2)-endh0)" type="coach" beg="0" end="5000" number="7" from="endh2-(2_2)" to="(0_2)-endh0"/>
	<flow id="normal-(endh2-(2_2))-((0_0)-starth0)" type="normal" beg="0" end="5000" number="50" from="endh2-(2_2)" to="(0_0)-starth0"/>
	<flow id="sporty-(endh2-(2_2))-((0_0)-starth0)" type="sporty" beg="0" end="5000" number="3" from="endh2-(2_2)" to="(0_0)-starth0"/>
	<flow id="trailer-(endh2-(2_2))-((0_0)-starth0)" type="trailer" beg="0" end="5000" number="3" from="endh2-(2_2)" to="(0_0)-starth0"/>
	<flow id="coach-(endh2-(2_2))-((0_0)-starth0)" type="coach" beg="0" end="5000" number="7" from="endh2-(2_2)" to="(0_0)-starth0"/>
	<flow id="normal-(endh2-(2_2))-((1_2)-endh1)" type="normal" beg="0" end="5000" number="50" from="endh2-(2_2)" to="(1_2)-endh1"/>
	<flow id="sporty-(endh2-(2_2))-((1_2)-endh1)" type="sporty" beg="0" end="5000" number="3" from="endh2-(2_2)" to="(1_2)-endh1"/>
	<flow id="trailer-(endh2-(2_2))-((1_2)-endh1)" type="trailer" beg="0" end="5000" number="3" from="endh2-(2_2)" to="(1_2)-endh1"/>
	<flow id="coach-(endh2-(2_2))-((1_2)-endh1)" type="coach" beg="0" end="5000" number="7" from="endh2-(2_2)" to="(1_2)-endh1"/>
	<flow id="normal-(endh2-(2_2))-((1_0)-starth1)" type="normal" beg="0" end="5000" number="50" from="endh2-(2_2)" to="(1_0)-starth1"/>
	<flow id="sporty-(endh2-(2_2))-((1_0)-starth1)" type="sporty" beg="0" end="5000" number="3" from="endh2-(2_2)" to="(1_0)-starth1"/>
	<flow id="trailer-(endh2-(2_2))-((1_0)-starth1)" type="trailer" beg="0" end="5000" number="3" from="endh2-(2_2)" to="(1_0)-starth1"/>
	<flow id="coach-(endh2-(2_2))-((1_0)-starth1)" type="coach" beg="0" end="5000" number="7" from="endh2-(2_2)" to="(1_0)-starth1"/>
	<flow id="normal-(endh2-(2_2))-((2_2)-endh2)" type="normal" beg="0" end="5000" number="50" from="endh2-(2_2)" to="(2_2)-endh2"/>
	<flow id="sporty-(endh2-(2_2))-((2_2)-endh2)" type="sporty" beg="0" end="5000" number="3" from="endh2-(2_2)" to="(2_2)-endh2"/>
	<flow id="trailer-(endh2-(2_2))-((2_2)-endh2)" type="trailer" beg="0" end="5000" number="3" from="endh2-(2_2)" to="(2_2)-endh2"/>
	<flow id="coach-(endh2-(2_2))-((2_2)-endh2)" type="coach" beg="0" end="5000" number="7" from="endh2-(2_2)" to="(2_2)-endh2"/>
	<flow id="normal-(endh2-(2_2))-((2_0)-starth2)" type="normal" beg="0" end="5000" number="50" from="endh2-(2_2)" to="(2_0)-starth2"/>
	<flow id="sporty-(endh2-(2_2))-((2_0)-starth2)" type="sporty" beg="0" end="5000" number="3" from="endh2-(2_2)" to="(2_0)-starth2"/>