<?xml version="1.0" encoding="UTF-8"?>

<!-- generated on Mon May 11 16:52:13 2020 by Eclipse SUMO netconvert Version v1_1_0+0000-2147d155b1
<configuration xmlns:xsi="http://www.w3.org/2001/XMLSchema-instance" xsi:noNamespaceSchemaLocation="http://sumo.dlr.de/xsd/netconvertConfiguration.xsd">

    <input>
        <node-files value="data/grid.nod.xml"/>
        <edge-files value="data/grid.edg.xml"/>
        <type-files value="data/grid.typ.xml"/>
    </input>

    <output>
        <output-file value="data/grid.net.xml"/>
    </output>

    <junctions>
        <no-turnarounds value="true"/>
    </junctions>

</configuration>
-->

<net version="1.1" junctionCornerDetail="5" limitTurnSpeed="5.50" xmlns:xsi="http://www.w3.org/2001/XMLSchema-instance" xsi:noNamespaceSchemaLocation="http://sumo.dlr.de/xsd/net_file.xsd">

    <location netOffset="500.00,1500.00" convBoundary="0.00,0.00,2000.00,2000.00" origBoundary="-500.00,-1500.00,1500.00,500.00" projParameter="!"/>

    <type id="type0" priority="3" numLanes="3" speed="16.67"/>
    <type id="type1" priority="2" numLanes="3" speed="16.67"/>
    <type id="type2" priority="2" numLanes="2" speed="13.89"/>

    <edge id=":(0_0)_0" function="internal">
        <lane id=":(0_0)_0_0" index="0" speed="6.51" length="9.03" shape="492.00,1513.60 491.65,1511.15 490.60,1509.40 488.85,1508.35 486.40,1508.00"/>
    </edge>
    <edge id=":(0_0)_1" function="internal">
        <lane id=":(0_0)_1_0" index="0" speed="16.67" length="27.20" shape="492.00,1513.60 492.00,1486.40"/>
        <lane id=":(0_0)_1_1" index="1" speed="16.67" length="27.20" shape="495.20,1513.60 495.20,1486.40"/>
        <lane id=":(0_0)_1_2" index="2" speed="16.67" length="27.20" shape="498.40,1513.60 498.40,1486.40"/>
    </edge>
    <edge id=":(0_0)_4" function="internal">
        <lane id=":(0_0)_4_0" index="0" speed="9.51" length="20.48" shape="498.40,1513.60 498.75,1505.55 499.80,1499.80 501.55,1496.35 504.00,1495.20"/>
    </edge>
    <edge id=":(0_0)_5" function="internal">
        <lane id=":(0_0)_5_0" index="0" speed="8.83" length="17.50" shape="498.40,1513.60 498.75,1506.95 499.80,1502.20 501.55,1499.35 504.00,1498.40"/>
    </edge>
    <edge id=":(0_0)_6" function="internal">
        <lane id=":(0_0)_6_0" index="0" speed="16.67" length="17.60" shape="504.00,1508.00 486.40,1508.00"/>
        <lane id=":(0_0)_6_1" index="1" speed="16.67" length="17.60" shape="504.00,1504.80 486.40,1504.80"/>
        <lane id=":(0_0)_6_2" index="2" speed="16.67" length="17.60" shape="504.00,1501.60 486.40,1501.60"/>
    </edge>
    <edge id=":(0_0)_9" function="internal">
        <lane id=":(0_0)_9_0" index="0" speed="8.83" length="3.39" shape="504.00,1501.60 501.55,1500.65 501.15,1500.00"/>
    </edge>
    <edge id=":(0_0)_14" function="internal">
        <lane id=":(0_0)_14_0" index="0" speed="8.83" length="14.11" shape="501.15,1500.00 499.80,1497.80 498.75,1493.05 498.40,1486.40"/>
    </edge>
    <edge id=":(0_0)_10" function="internal">
        <lane id=":(0_0)_10_0" index="0" speed="6.51" length="9.03" shape="486.40,1492.00 488.85,1491.65 490.60,1490.60 491.65,1488.85 492.00,1486.40"/>
    </edge>
    <edge id=":(0_0)_11" function="internal">
        <lane id=":(0_0)_11_0" index="0" speed="16.67" length="17.60" shape="486.40,1492.00 504.00,1492.00"/>
        <lane id=":(0_0)_11_1" index="1" speed="16.67" length="17.60" shape="486.40,1495.20 504.00,1495.20"/>
        <lane id=":(0_0)_11_2" index="2" speed="16.67" length="17.60" shape="486.40,1498.40 504.00,1498.40"/>
    </edge>
    <edge id=":(0_1)_0" function="internal">
        <lane id=":(0_1)_0_0" index="0" speed="6.51" length="9.03" shape="992.00,1513.60 991.65,1511.15 990.60,1509.40 988.85,1508.35 986.40,1508.00"/>
    </edge>
    <edge id=":(0_1)_1" function="internal">
        <lane id=":(0_1)_1_0" index="0" speed="16.67" length="27.20" shape="992.00,1513.60 992.00,1486.40"/>
        <lane id=":(0_1)_1_1" index="1" speed="16.67" length="27.20" shape="995.20,1513.60 995.20,1486.40"/>
        <lane id=":(0_1)_1_2" index="2" speed="16.67" length="27.20" shape="998.40,1513.60 998.40,1486.40"/>
    </edge>
    <edge id=":(0_1)_4" function="internal">
        <lane id=":(0_1)_4_0" index="0" speed="10.36" length="7.98" shape="998.40,1513.60 999.35,1506.95 1000.00,1505.87"/>
    </edge>
    <edge id=":(0_1)_20" function="internal">
        <lane id=":(0_1)_20_0" index="0" speed="10.36" length="16.53" shape="1000.00,1505.87 1002.20,1502.20 1006.95,1499.35 1013.60,1498.40"/>
    </edge>
    <edge id=":(0_1)_5" function="internal">
        <lane id=":(0_1)_5_0" index="0" speed="6.51" length="9.03" shape="1013.60,1508.00 1011.15,1508.35 1009.40,1509.40 1008.35,1511.15 1008.00,1513.60"/>
    </edge>
    <edge id=":(0_1)_6" function="internal">
        <lane id=":(0_1)_6_0" index="0" speed="16.67" length="27.20" shape="1013.60,1508.00 986.40,1508.00"/>
        <lane id=":(0_1)_6_1" index="1" speed="16.67" length="27.20" shape="1013.60,1504.80 986.40,1504.80"/>
        <lane id=":(0_1)_6_2" index="2" speed="16.67" length="27.20" shape="1013.60,1501.60 986.40,1501.60"/>
    </edge>
    <edge id=":(0_1)_9" function="internal">
        <lane id=":(0_1)_9_0" index="0" speed="10.36" length="7.98" shape="1013.60,1501.60 1006.95,1500.65 1005.87,1500.00"/>
    </edge>
    <edge id=":(0_1)_21" function="internal">
        <lane id=":(0_1)_21_0" index="0" speed="10.36" length="16.53" shape="1005.87,1500.00 1002.20,1497.80 999.35,1493.05 998.40,1486.40"/>
    </edge>
    <edge id=":(0_1)_10" function="internal">
        <lane id=":(0_1)_10_0" index="0" speed="6.51" length="9.03" shape="1008.00,1486.40 1008.35,1488.85 1009.40,1490.60 1011.15,1491.65 1013.60,1492.00"/>
    </edge>
    <edge id=":(0_1)_11" function="internal">
        <lane id=":(0_1)_11_0" index="0" speed="16.67" length="27.20" shape="1008.00,1486.40 1008.00,1513.60"/>
        <lane id=":(0_1)_11_1" index="1" speed="16.67" length="27.20" shape="1004.80,1486.40 1004.80,1513.60"/>
        <lane id=":(0_1)_11_2" index="2" speed="16.67" length="27.20" shape="1001.60,1486.40 1001.60,1513.60"/>
    </edge>
    <edge id=":(0_1)_14" function="internal">
        <lane id=":(0_1)_14_0" index="0" speed="10.36" length="7.98" shape="1001.60,1486.40 1000.65,1493.05 1000.00,1494.13"/>
    </edge>
    <edge id=":(0_1)_22" function="internal">
        <lane id=":(0_1)_22_0" index="0" speed="10.36" length="16.53" shape="1000.00,1494.13 997.80,1497.80 993.05,1500.65 986.40,1501.60"/>
    </edge>
    <edge id=":(0_1)_15" function="internal">
        <lane id=":(0_1)_15_0" index="0" speed="6.51" length="9.03" shape="986.40,1492.00 988.85,1491.65 990.60,1490.60 991.65,1488.85 992.00,1486.40"/>
    </edge>
    <edge id=":(0_1)_16" function="internal">
        <lane id=":(0_1)_16_0" index="0" speed="16.67" length="27.20" shape="986.40,1492.00 1013.60,1492.00"/>
        <lane id=":(0_1)_16_1" index="1" speed="16.67" length="27.20" shape="986.40,1495.20 1013.60,1495.20"/>
        <lane id=":(0_1)_16_2" index="2" speed="16.67" length="27.20" shape="986.40,1498.40 1013.60,1498.40"/>
    </edge>
    <edge id=":(0_1)_19" function="internal">
        <lane id=":(0_1)_19_0" index="0" speed="10.36" length="7.98" shape="986.40,1498.40 993.05,1499.35 994.13,1500.00"/>
    </edge>
    <edge id=":(0_1)_23" function="internal">
        <lane id=":(0_1)_23_0" index="0" speed="10.36" length="16.53" shape="994.13,1500.00 997.80,1502.20 1000.65,1506.95 1001.60,1513.60"/>
    </edge>
    <edge id=":(0_2)_0" function="internal">
        <lane id=":(0_2)_0_0" index="0" speed="6.51" length="9.03" shape="1492.00,1513.60 1491.65,1511.15 1490.60,1509.40 1488.85,1508.35 1486.40,1508.00"/>
    </edge>
    <edge id=":(0_2)_1" function="internal">
        <lane id=":(0_2)_1_0" index="0" speed="16.67" length="27.20" shape="1492.00,1513.60 1492.00,1486.40"/>
        <lane id=":(0_2)_1_1" index="1" speed="16.67" length="27.20" shape="1495.20,1513.60 1495.20,1486.40"/>
        <lane id=":(0_2)_1_2" index="2" speed="16.67" length="27.20" shape="1498.40,1513.60 1498.40,1486.40"/>
    </edge>
    <edge id=":(0_2)_4" function="internal">
        <lane id=":(0_2)_4_0" index="0" speed="9.51" length="20.48" shape="1498.40,1513.60 1498.75,1505.55 1499.80,1499.80 1501.55,1496.35 1504.00,1495.20"/>
    </edge>
    <edge id=":(0_2)_5" function="internal">
        <lane id=":(0_2)_5_0" index="0" speed="8.83" length="17.50" shape="1498.40,1513.60 1498.75,1506.95 1499.80,1502.20 1501.55,1499.35 1504.00,1498.40"/>
    </edge>
    <edge id=":(0_2)_6" function="internal">
        <lane id=":(0_2)_6_0" index="0" speed="16.67" length="17.60" shape="1504.00,1508.00 1486.40,1508.00"/>
        <lane id=":(0_2)_6_1" index="1" speed="16.67" length="17.60" shape="1504.00,1504.80 1486.40,1504.80"/>
        <lane id=":(0_2)_6_2" index="2" speed="16.67" length="17.60" shape="1504.00,1501.60 1486.40,1501.60"/>
    </edge>
    <edge id=":(0_2)_9" function="internal">
        <lane id=":(0_2)_9_0" index="0" speed="8.83" length="3.39" shape="1504.00,1501.60 1501.55,1500.65 1501.15,1500.00"/>
    </edge>
    <edge id=":(0_2)_14" function="internal">
        <lane id=":(0_2)_14_0" index="0" speed="8.83" length="14.11" shape="1501.15,1500.00 1499.80,1497.80 1498.75,1493.05 1498.40,1486.40"/>
    </edge>
    <edge id=":(0_2)_10" function="internal">
        <lane id=":(0_2)_10_0" index="0" speed="6.51" length="9.03" shape="1486.40,1492.00 1488.85,1491.65 1490.60,1490.60 1491.65,1488.85 1492.00,1486.40"/>
    </edge>
    <edge id=":(0_2)_11" function="internal">
        <lane id=":(0_2)_11_0" index="0" speed="16.67" length="17.60" shape="1486.40,1492.00 1504.00,1492.00"/>
        <lane id=":(0_2)_11_1" index="1" speed="16.67" length="17.60" shape="1486.40,1495.20 1504.00,1495.20"/>
        <lane id=":(0_2)_11_2" index="2" speed="16.67" length="17.60" shape="1486.40,1498.40 1504.00,1498.40"/>
    </edge>
    <edge id=":(1_0)_0" function="internal">
        <lane id=":(1_0)_0_0" index="0" speed="6.51" length="9.03" shape="492.00,1013.60 491.65,1011.15 490.60,1009.40 488.85,1008.35 486.40,1008.00"/>
    </edge>
    <edge id=":(1_0)_1" function="internal">
        <lane id=":(1_0)_1_0" index="0" speed="16.67" length="27.20" shape="492.00,1013.60 492.00,986.40"/>
        <lane id=":(1_0)_1_1" index="1" speed="16.67" length="27.20" shape="495.20,1013.60 495.20,986.40"/>
        <lane id=":(1_0)_1_2" index="2" speed="16.67" length="27.20" shape="498.40,1013.60 498.40,986.40"/>
    </edge>
    <edge id=":(1_0)_4" function="internal">
        <lane id=":(1_0)_4_0" index="0" speed="9.51" length="20.48" shape="498.40,1013.60 498.75,1005.55 499.80,999.80 501.55,996.35 504.00,995.20"/>
    </edge>
    <edge id=":(1_0)_5" function="internal">
        <lane id=":(1_0)_5_0" index="0" speed="8.83" length="17.50" shape="498.40,1013.60 498.75,1006.95 499.80,1002.20 501.55,999.35 504.00,998.40"/>
    </edge>
    <edge id=":(1_0)_6" function="internal">
        <lane id=":(1_0)_6_0" index="0" speed="16.67" length="17.60" shape="504.00,1008.00 486.40,1008.00"/>
        <lane id=":(1_0)_6_1" index="1" speed="16.67" length="17.60" shape="504.00,1004.80 486.40,1004.80"/>
        <lane id=":(1_0)_6_2" index="2" speed="16.67" length="17.60" shape="504.00,1001.60 486.40,1001.60"/>
    </edge>
    <edge id=":(1_0)_9" function="internal">
        <lane id=":(1_0)_9_0" index="0" speed="8.83" length="3.39" shape="504.00,1001.60 501.55,1000.65 501.15,1000.00"/>
    </edge>
    <edge id=":(1_0)_14" function="internal">
        <lane id=":(1_0)_14_0" index="0" speed="8.83" length="14.11" shape="501.15,1000.00 499.80,997.80 498.75,993.05 498.40,986.40"/>
    </edge>
    <edge id=":(1_0)_10" function="internal">
        <lane id=":(1_0)_10_0" index="0" speed="6.51" length="9.03" shape="486.40,992.00 488.85,991.65 490.60,990.60 491.65,988.85 492.00,986.40"/>
    </edge>
    <edge id=":(1_0)_11" function="internal">
        <lane id=":(1_0)_11_0" index="0" speed="16.67" length="17.60" shape="486.40,992.00 504.00,992.00"/>
        <lane id=":(1_0)_11_1" index="1" speed="16.67" length="17.60" shape="486.40,995.20 504.00,995.20"/>
        <lane id=":(1_0)_11_2" index="2" speed="16.67" length="17.60" shape="486.40,998.40 504.00,998.40"/>
    </edge>
    <edge id=":(1_1)_0" function="internal">
        <lane id=":(1_1)_0_0" index="0" speed="6.51" length="9.03" shape="992.00,1013.60 991.65,1011.15 990.60,1009.40 988.85,1008.35 986.40,1008.00"/>
    </edge>
    <edge id=":(1_1)_1" function="internal">
        <lane id=":(1_1)_1_0" index="0" speed="16.67" length="27.20" shape="992.00,1013.60 992.00,986.40"/>
        <lane id=":(1_1)_1_1" index="1" speed="16.67" length="27.20" shape="995.20,1013.60 995.20,986.40"/>
        <lane id=":(1_1)_1_2" index="2" speed="16.67" length="27.20" shape="998.40,1013.60 998.40,986.40"/>
    </edge>
    <edge id=":(1_1)_4" function="internal">
        <lane id=":(1_1)_4_0" index="0" speed="10.36" length="7.98" shape="998.40,1013.60 999.35,1006.95 1000.00,1005.87"/>
    </edge>
    <edge id=":(1_1)_20" function="internal">
        <lane id=":(1_1)_20_0" index="0" speed="10.36" length="16.53" shape="1000.00,1005.87 1002.20,1002.20 1006.95,999.35 1013.60,998.40"/>
    </edge>
    <edge id=":(1_1)_5" function="internal">
        <lane id=":(1_1)_5_0" index="0" speed="6.51" length="9.03" shape="1013.60,1008.00 1011.15,1008.35 1009.40,1009.40 1008.35,1011.15 1008.00,1013.60"/>
    </edge>
    <edge id=":(1_1)_6" function="internal">
        <lane id=":(1_1)_6_0" index="0" speed="16.67" length="27.20" shape="1013.60,1008.00 986.40,1008.00"/>
        <lane id=":(1_1)_6_1" index="1" speed="16.67" length="27.20" shape="1013.60,1004.80 986.40,1004.80"/>
        <lane id=":(1_1)_6_2" index="2" speed="16.67" length="27.20" shape="1013.60,1001.60 986.40,1001.60"/>
    </edge>
    <edge id=":(1_1)_9" function="internal">
        <lane id=":(1_1)_9_0" index="0" speed="10.36" length="7.98" shape="1013.60,1001.60 1006.95,1000.65 1005.87,1000.00"/>
    </edge>
    <edge id=":(1_1)_21" function="internal">
        <lane id=":(1_1)_21_0" index="0" speed="10.36" length="16.53" shape="1005.87,1000.00 1002.20,997.80 999.35,993.05 998.40,986.40"/>
    </edge>
    <edge id=":(1_1)_10" function="internal">
        <lane id=":(1_1)_10_0" index="0" speed="6.51" length="9.03" shape="1008.00,986.40 1008.35,988.85 1009.40,990.60 1011.15,991.65 1013.60,992.00"/>
    </edge>
    <edge id=":(1_1)_11" function="internal">
        <lane id=":(1_1)_11_0" index="0" speed="16.67" length="27.20" shape="1008.00,986.40 1008.00,1013.60"/>
        <lane id=":(1_1)_11_1" index="1" speed="16.67" length="27.20" shape="1004.80,986.40 1004.80,1013.60"/>
        <lane id=":(1_1)_11_2" index="2" speed="16.67" length="27.20" shape="1001.60,986.40 1001.60,1013.60"/>
    </edge>
    <edge id=":(1_1)_14" function="internal">
        <lane id=":(1_1)_14_0" index="0" speed="10.36" length="7.98" shape="1001.60,986.40 1000.65,993.05 1000.00,994.13"/>
    </edge>
    <edge id=":(1_1)_22" function="internal">
        <lane id=":(1_1)_22_0" index="0" speed="10.36" length="16.53" shape="1000.00,994.13 997.80,997.80 993.05,1000.65 986.40,1001.60"/>
    </edge>
    <edge id=":(1_1)_15" function="internal">
        <lane id=":(1_1)_15_0" index="0" speed="6.51" length="9.03" shape="986.40,992.00 988.85,991.65 990.60,990.60 991.65,988.85 992.00,986.40"/>
    </edge>
    <edge id=":(1_1)_16" function="internal">
        <lane id=":(1_1)_16_0" index="0" speed="16.67" length="27.20" shape="986.40,992.00 1013.60,992.00"/>
        <lane id=":(1_1)_16_1" index="1" speed="16.67" length="27.20" shape="986.40,995.20 1013.60,995.20"/>
        <lane id=":(1_1)_16_2" index="2" speed="16.67" length="27.20" shape="986.40,998.40 1013.60,998.40"/>
    </edge>
    <edge id=":(1_1)_19" function="internal">
        <lane id=":(1_1)_19_0" index="0" speed="10.36" length="7.98" shape="986.40,998.40 993.05,999.35 994.13,1000.00"/>
    </edge>
    <edge id=":(1_1)_23" function="internal">
        <lane id=":(1_1)_23_0" index="0" speed="10.36" length="16.53" shape="994.13,1000.00 997.80,1002.20 1000.65,1006.95 1001.60,1013.60"/>
    </edge>
    <edge id=":(1_2)_0" function="internal">
        <lane id=":(1_2)_0_0" index="0" speed="6.51" length="9.03" shape="1492.00,1013.60 1491.65,1011.15 1490.60,1009.40 1488.85,1008.35 1486.40,1008.00"/>
    </edge>
    <edge id=":(1_2)_1" function="internal">
        <lane id=":(1_2)_1_0" index="0" speed="16.67" length="27.20" shape="1492.00,1013.60 1492.00,986.40"/>
        <lane id=":(1_2)_1_1" index="1" speed="16.67" length="27.20" shape="1495.20,1013.60 1495.20,986.40"/>
        <lane id=":(1_2)_1_2" index="2" speed="16.67" length="27.20" shape="1498.40,1013.60 1498.40,986.40"/>
    </edge>
    <edge id=":(1_2)_4" function="internal">
        <lane id=":(1_2)_4_0" index="0" speed="9.51" length="20.48" shape="1498.40,1013.60 1498.75,1005.55 1499.80,999.80 1501.55,996.35 1504.00,995.20"/>
    </edge>
    <edge id=":(1_2)_5" function="internal">
        <lane id=":(1_2)_5_0" index="0" speed="8.83" length="17.50" shape="1498.40,1013.60 1498.75,1006.95 1499.80,1002.20 1501.55,999.35 1504.00,998.40"/>
    </edge>
    <edge id=":(1_2)_6" function="internal">
        <lane id=":(1_2)_6_0" index="0" speed="16.67" length="17.60" shape="1504.00,1008.00 1486.40,1008.00"/>
        <lane id=":(1_2)_6_1" index="1" speed="16.67" length="17.60" shape="1504.00,1004.80 1486.40,1004.80"/>
        <lane id=":(1_2)_6_2" index="2" speed="16.67" length="17.60" shape="1504.00,1001.60 1486.40,1001.60"/>
    </edge>
    <edge id=":(1_2)_9" function="internal">
        <lane id=":(1_2)_9_0" index="0" speed="8.83" length="3.39" shape="1504.00,1001.60 1501.55,1000.65 1501.15,1000.00"/>
    </edge>
    <edge id=":(1_2)_14" function="internal">
        <lane id=":(1_2)_14_0" index="0" speed="8.83" length="14.11" shape="1501.15,1000.00 1499.80,997.80 1498.75,993.05 1498.40,986.40"/>
    </edge>
    <edge id=":(1_2)_10" function="internal">
        <lane id=":(1_2)_10_0" index="0" speed="6.51" length="9.03" shape="1486.40,992.00 1488.85,991.65 1490.60,990.60 1491.65,988.85 1492.00,986.40"/>
    </edge>
    <edge id=":(1_2)_11" function="internal">
        <lane id=":(1_2)_11_0" index="0" speed="16.67" length="17.60" shape="1486.40,992.00 1504.00,992.00"/>
        <lane id=":(1_2)_11_1" index="1" speed="16.67" length="17.60" shape="1486.40,995.20 1504.00,995.20"/>
        <lane id=":(1_2)_11_2" index="2" speed="16.67" length="17.60" shape="1486.40,998.40 1504.00,998.40"/>
    </edge>
    <edge id=":(2_0)_0" function="internal">
        <lane id=":(2_0)_0_0" index="0" speed="6.51" length="9.03" shape="492.00,513.60 491.65,511.15 490.60,509.40 488.85,508.35 486.40,508.00"/>
    </edge>
    <edge id=":(2_0)_1" function="internal">
        <lane id=":(2_0)_1_0" index="0" speed="16.67" length="27.20" shape="492.00,513.60 492.00,486.40"/>
        <lane id=":(2_0)_1_1" index="1" speed="16.67" length="27.20" shape="495.20,513.60 495.20,486.40"/>
        <lane id=":(2_0)_1_2" index="2" speed="16.67" length="27.20" shape="498.40,513.60 498.40,486.40"/>
    </edge>
    <edge id=":(2_0)_4" function="internal">
        <lane id=":(2_0)_4_0" index="0" speed="9.51" length="20.48" shape="498.40,513.60 498.75,505.55 499.80,499.80 501.55,496.35 504.00,495.20"/>
    </edge>
    <edge id=":(2_0)_5" function="internal">
        <lane id=":(2_0)_5_0" index="0" speed="8.83" length="17.50" shape="498.40,513.60 498.75,506.95 499.80,502.20 501.55,499.35 504.00,498.40"/>
    </edge>
    <edge id=":(2_0)_6" function="internal">
        <lane id=":(2_0)_6_0" index="0" speed="16.67" length="17.60" shape="504.00,508.00 486.40,508.00"/>
        <lane id=":(2_0)_6_1" index="1" speed="16.67" length="17.60" shape="504.00,504.80 486.40,504.80"/>
        <lane id=":(2_0)_6_2" index="2" speed="16.67" length="17.60" shape="504.00,501.60 486.40,501.60"/>
    </edge>
    <edge id=":(2_0)_9" function="internal">
        <lane id=":(2_0)_9_0" index="0" speed="8.83" length="3.39" shape="504.00,501.60 501.55,500.65 501.15,500.00"/>
    </edge>
    <edge id=":(2_0)_14" function="internal">
        <lane id=":(2_0)_14_0" index="0" speed="8.83" length="14.11" shape="501.15,500.00 499.80,497.80 498.75,493.05 498.40,486.40"/>
    </edge>
    <edge id=":(2_0)_10" function="internal">
        <lane id=":(2_0)_10_0" index="0" speed="6.51" length="9.03" shape="486.40,492.00 488.85,491.65 490.60,490.60 491.65,488.85 492.00,486.40"/>
    </edge>
    <edge id=":(2_0)_11" function="internal">
        <lane id=":(2_0)_11_0" index="0" speed="16.67" length="17.60" shape="486.40,492.00 504.00,492.00"/>
        <lane id=":(2_0)_11_1" index="1" speed="16.67" length="17.60" shape="486.40,495.20 504.00,495.20"/>
        <lane id=":(2_0)_11_2" index="2" speed="16.67" length="17.60" shape="486.40,498.40 504.00,498.40"/>
    </edge>
    <edge id=":(2_1)_0" function="internal">
        <lane id=":(2_1)_0_0" index="0" speed="6.51" length="9.03" shape="992.00,513.60 991.65,511.15 990.60,509.40 988.85,508.35 986.40,508.00"/>
    </edge>
    <edge id=":(2_1)_1" function="internal">
        <lane id=":(2_1)_1_0" index="0" speed="16.67" length="27.20" shape="992.00,513.60 992.00,486.40"/>
        <lane id=":(2_1)_1_1" index="1" speed="16.67" length="27.20" shape="995.20,513.60 995.20,486.40"/>
        <lane id=":(2_1)_1_2" index="2" speed="16.67" length="27.20" shape="998.40,513.60 998.40,486.40"/>
    </edge>
    <edge id=":(2_1)_4" function="internal">
        <lane id=":(2_1)_4_0" index="0" speed="10.36" length="7.98" shape="998.40,513.60 999.35,506.95 1000.00,505.87"/>
    </edge>
    <edge id=":(2_1)_20" function="internal">
        <lane id=":(2_1)_20_0" index="0" speed="10.36" length="16.53" shape="1000.00,505.87 1002.20,502.20 1006.95,499.35 1013.60,498.40"/>
    </edge>
    <edge id=":(2_1)_5" function="internal">
        <lane id=":(2_1)_5_0" index="0" speed="6.51" length="9.03" shape="1013.60,508.00 1011.15,508.35 1009.40,509.40 1008.35,511.15 1008.00,513.60"/>
    </edge>
    <edge id=":(2_1)_6" function="internal">
        <lane id=":(2_1)_6_0" index="0" speed="16.67" length="27.20" shape="1013.60,508.00 986.40,508.00"/>
        <lane id=":(2_1)_6_1" index="1" speed="16.67" length="27.20" shape="1013.60,504.80 986.40,504.80"/>
        <lane id=":(2_1)_6_2" index="2" speed="16.67" length="27.20" shape="1013.60,501.60 986.40,501.60"/>
    </edge>
    <edge id=":(2_1)_9" function="internal">
        <lane id=":(2_1)_9_0" index="0" speed="10.36" length="7.98" shape="1013.60,501.60 1006.95,500.65 1005.87,500.00"/>
    </edge>
    <edge id=":(2_1)_21" function="internal">
        <lane id=":(2_1)_21_0" index="0" speed="10.36" length="16.53" shape="1005.87,500.00 1002.20,497.80 999.35,493.05 998.40,486.40"/>
    </edge>
    <edge id=":(2_1)_10" function="internal">
        <lane id=":(2_1)_10_0" index="0" speed="6.51" length="9.03" shape="1008.00,486.40 1008.35,488.85 1009.40,490.60 1011.15,491.65 1013.60,492.00"/>
    </edge>
    <edge id=":(2_1)_11" function="internal">
        <lane id=":(2_1)_11_0" index="0" speed="16.67" length="27.20" shape="1008.00,486.40 1008.00,513.60"/>
        <lane id=":(2_1)_11_1" index="1" speed="16.67" length="27.20" shape="1004.80,486.40 1004.80,513.60"/>
        <lane id=":(2_1)_11_2" index="2" speed="16.67" length="27.20" shape="1001.60,486.40 1001.60,513.60"/>
    </edge>
    <edge id=":(2_1)_14" function="internal">
        <lane id=":(2_1)_14_0" index="0" speed="10.36" length="7.98" shape="1001.60,486.40 1000.65,493.05 1000.00,494.13"/>
    </edge>
    <edge id=":(2_1)_22" function="internal">
        <lane id=":(2_1)_22_0" index="0" speed="10.36" length="16.53" shape="1000.00,494.13 997.80,497.80 993.05,500.65 986.40,501.60"/>
    </edge>
    <edge id=":(2_1)_15" function="internal">
        <lane id=":(2_1)_15_0" index="0" speed="6.51" length="9.03" shape="986.40,492.00 988.85,491.65 990.60,490.60 991.65,488.85 992.00,486.40"/>
    </edge>
    <edge id=":(2_1)_16" function="internal">
        <lane id=":(2_1)_16_0" index="0" speed="16.67" length="27.20" shape="986.40,492.00 1013.60,492.00"/>
        <lane id=":(2_1)_16_1" index="1" speed="16.67" length="27.20" shape="986.40,495.20 1013.60,495.20"/>
        <lane id=":(2_1)_16_2" index="2" speed="16.67" length="27.20" shape="986.40,498.40 1013.60,498.40"/>
    </edge>
    <edge id=":(2_1)_19" function="internal">
        <lane id=":(2_1)_19_0" index="0" speed="10.36" length="7.98" shape="986.40,498.40 993.05,499.35 994.13,500.00"/>
    </edge>
    <edge id=":(2_1)_23" function="internal">
        <lane id=":(2_1)_23_0" index="0" speed="10.36" length="16.53" shape="994.13,500.00 997.80,502.20 1000.65,506.95 1001.60,513.60"/>
    </edge>
    <edge id=":(2_2)_0" function="internal">
        <lane id=":(2_2)_0_0" index="0" speed="6.51" length="9.03" shape="1492.00,513.60 1491.65,511.15 1490.60,509.40 1488.85,508.35 1486.40,508.00"/>
    </edge>
    <edge id=":(2_2)_1" function="internal">
        <lane id=":(2_2)_1_0" index="0" speed="16.67" length="27.20" shape="1492.00,513.60 1492.00,486.40"/>
        <lane id=":(2_2)_1_1" index="1" speed="16.67" length="27.20" shape="1495.20,513.60 1495.20,486.40"/>
        <lane id=":(2_2)_1_2" index="2" speed="16.67" length="27.20" shape="1498.40,513.60 1498.40,486.40"/>
    </edge>
    <edge id=":(2_2)_4" function="internal">
        <lane id=":(2_2)_4_0" index="0" speed="9.51" length="20.48" shape="1498.40,513.60 1498.75,505.55 1499.80,499.80 1501.55,496.35 1504.00,495.20"/>
    </edge>
    <edge id=":(2_2)_5" function="internal">
        <lane id=":(2_2)_5_0" index="0" speed="8.83" length="17.50" shape="1498.40,513.60 1498.75,506.95 1499.80,502.20 1501.55,499.35 1504.00,498.40"/>
    </edge>
    <edge id=":(2_2)_6" function="internal">
        <lane id=":(2_2)_6_0" index="0" speed="16.67" length="17.60" shape="1504.00,508.00 1486.40,508.00"/>
        <lane id=":(2_2)_6_1" index="1" speed="16.67" length="17.60" shape="1504.00,504.80 1486.40,504.80"/>
        <lane id=":(2_2)_6_2" index="2" speed="16.67" length="17.60" shape="1504.00,501.60 1486.40,501.60"/>
    </edge>
    <edge id=":(2_2)_9" function="internal">
        <lane id=":(2_2)_9_0" index="0" speed="8.83" length="3.39" shape="1504.00,501.60 1501.55,500.65 1501.15,500.00"/>
    </edge>
    <edge id=":(2_2)_14" function="internal">
        <lane id=":(2_2)_14_0" index="0" speed="8.83" length="14.11" shape="1501.15,500.00 1499.80,497.80 1498.75,493.05 1498.40,486.40"/>
    </edge>
    <edge id=":(2_2)_10" function="internal">
        <lane id=":(2_2)_10_0" index="0" speed="6.51" length="9.03" shape="1486.40,492.00 1488.85,491.65 1490.60,490.60 1491.65,488.85 1492.00,486.40"/>
    </edge>
    <edge id=":(2_2)_11" function="internal">
        <lane id=":(2_2)_11_0" index="0" speed="16.67" length="17.60" shape="1486.40,492.00 1504.00,492.00"/>
        <lane id=":(2_2)_11_1" index="1" speed="16.67" length="17.60" shape="1486.40,495.20 1504.00,495.20"/>
        <lane id=":(2_2)_11_2" index="2" speed="16.67" length="17.60" shape="1486.40,498.40 1504.00,498.40"/>
    </edge>

    <edge id="(0_0)-(0_1)" from="(0_0)" to="(0_1)" priority="3" type="type0">
        <lane id="(0_0)-(0_1)_0" index="0" speed="16.67" length="482.40" shape="504.00,1492.00 986.40,1492.00"/>
        <lane id="(0_0)-(0_1)_1" index="1" speed="16.67" length="482.40" shape="504.00,1495.20 986.40,1495.20"/>
        <lane id="(0_0)-(0_1)_2" index="2" speed="16.67" length="482.40" shape="504.00,1498.40 986.40,1498.40"/>
    </edge>
    <edge id="(0_0)-(1_0)" from="(0_0)" to="(1_0)" priority="2" type="type1">
        <lane id="(0_0)-(1_0)_0" index="0" speed="16.67" length="472.80" shape="492.00,1486.40 492.00,1013.60"/>
        <lane id="(0_0)-(1_0)_1" index="1" speed="16.67" length="472.80" shape="495.20,1486.40 495.20,1013.60"/>
        <lane id="(0_0)-(1_0)_2" index="2" speed="16.67" length="472.80" shape="498.40,1486.40 498.40,1013.60"/>
    </edge>
    <edge id="(0_0)-starth0" from="(0_0)" to="starth0" priority="3" type="type0">
        <lane id="(0_0)-starth0_0" index="0" speed="16.67" length="486.40" shape="486.40,1508.00 0.00,1508.00"/>
        <lane id="(0_0)-starth0_1" index="1" speed="16.67" length="486.40" shape="486.40,1504.80 0.00,1504.80"/>
        <lane id="(0_0)-starth0_2" index="2" speed="16.67" length="486.40" shape="486.40,1501.60 0.00,1501.60"/>
    </edge>
    <edge id="(0_1)-(0_0)" from="(0_1)" to="(0_0)" priority="3" type="type0">
        <lane id="(0_1)-(0_0)_0" index="0" speed="16.67" length="482.40" shape="986.40,1508.00 504.00,1508.00"/>
        <lane id="(0_1)-(0_0)_1" index="1" speed="16.67" length="482.40" shape="986.40,1504.80 504.00,1504.80"/>
        <lane id="(0_1)-(0_0)_2" index="2" speed="16.67" length="482.40" shape="986.40,1501.60 504.00,1501.60"/>
    </edge>
    <edge id="(0_1)-(0_2)" from="(0_1)" to="(0_2)" priority="3" type="type0">
        <lane id="(0_1)-(0_2)_0" index="0" speed="16.67" length="472.80" shape="1013.60,1492.00 1486.40,1492.00"/>
        <lane id="(0_1)-(0_2)_1" index="1" speed="16.67" length="472.80" shape="1013.60,1495.20 1486.40,1495.20"/>
        <lane id="(0_1)-(0_2)_2" index="2" speed="16.67" length="472.80" shape="1013.60,1498.40 1486.40,1498.40"/>
    </edge>
    <edge id="(0_1)-(1_1)" from="(0_1)" to="(1_1)" priority="2" type="type1">
        <lane id="(0_1)-(1_1)_0" index="0" speed="16.67" length="472.80" shape="992.00,1486.40 992.00,1013.60"/>
        <lane id="(0_1)-(1_1)_1" index="1" speed="16.67" length="472.80" shape="995.20,1486.40 995.20,1013.60"/>
        <lane id="(0_1)-(1_1)_2" index="2" speed="16.67" length="472.80" shape="998.40,1486.40 998.40,1013.60"/>
    </edge>
    <edge id="(0_1)-startv1" from="(0_1)" to="startv1" priority="2" type="type1">
        <lane id="(0_1)-startv1_0" index="0" speed="16.67" length="486.40" shape="1008.00,1513.60 1008.00,2000.00"/>